Synthetic/Poland/case2746wop_TAMU_Updated.m
% Case saved by PowerWorld Simulator, version 22, build date March 16, 2022
function mpc = case2746wop_TAMU_Updated
mpc.version = '2';
mpc.baseMVA =  100.00;

%% bus data 
mpc.bus = [
1	1	0.00	0.00	0.00	0.00	1	1.0807692	-5.842457	220.00	1	1.100	0.900
2	1	0.00	0.00	0.00	0.00	1	1.0828089	-2.404548	220.00	1	1.100	0.900
3	1	0.00	0.00	0.00	0.00	1	1.0633664	-23.485660	220.00	1	1.100	0.900
4	1	0.00	0.00	0.00	0.00	1	1.0707684	-8.914048	220.00	1	1.100	0.900
5	1	0.00	0.00	0.00	0.00	1	1.0707810	-8.920646	220.00	1	1.100	0.900
6	1	0.00	0.00	0.00	0.00	1	1.0576742	-17.448493	220.00	1	1.100	0.900
7	1	0.00	0.00	0.00	0.00	1	1.0577513	-17.445232	220.00	1	1.100	0.900
8	1	0.00	0.00	0.00	-50.00	1	1.0185816	-15.181525	400.00	1	1.100	0.900
9	1	0.00	0.00	0.00	0.00	1	1.0186167	-15.184226	400.00	1	1.100	0.900
10	1	0.00	0.00	0.00	0.00	1	1.0508189	-17.414427	220.00	1	1.100	0.900
11	1	0.00	0.00	0.00	0.00	1	1.0507480	-17.428382	220.00	1	1.100	0.900
12	1	0.00	0.00	0.00	0.00	1	1.0507873	-17.420836	220.00	1	1.100	0.900
13	1	0.00	0.00	0.00	-50.00	1	1.0095451	-13.383999	400.00	1	1.100	0.900
14	1	0.00	0.00	0.00	0.00	1	1.0096457	-13.378400	400.00	1	1.100	0.900
15	1	0.00	0.00	0.00	0.00	1	1.0281327	-16.549107	400.00	1	1.100	0.900
16	1	0.00	0.00	0.00	0.00	1	1.0281327	-16.549107	400.00	1	1.100	0.900
17	2	2.30	31.00	0.00	0.00	1	1.0908800	-19.427206	220.00	1	1.100	0.900
18	2	9.70	40.00	0.00	0.00	1	1.0909100	-19.428658	220.00	1	1.100	0.900
19	1	0.00	0.00	0.00	0.00	1	1.0741914	-8.094314	220.00	1	1.100	0.900
20	1	0.00	0.00	0.00	0.00	1	1.0741878	-8.090384	220.00	1	1.100	0.900
21	1	0.00	0.00	0.00	0.00	1	1.0696173	-19.167257	220.00	1	1.100	0.900
22	1	0.00	0.00	0.00	0.00	1	1.0696173	-19.167257	220.00	1	1.100	0.900
23	1	0.00	0.00	0.00	0.00	1	1.0513911	-17.347989	220.00	1	1.100	0.900
24	1	0.00	0.00	0.00	0.00	1	1.0768614	-5.979081	220.00	1	1.100	0.900
25	1	0.00	0.00	0.00	-50.00	1	1.0106515	-18.092129	400.00	1	1.100	0.900
26	2	28.57	42.05	0.00	0.00	1	1.0909100	-5.652584	220.00	1	1.100	0.900
27	2	85.00	122.06	0.00	0.00	1	1.0909100	-2.180448	220.00	1	1.100	0.900
28	3	44.78	80.00	0.00	0.00	1	1.0325000	-4.410000	400.00	1	1.100	0.900
29	2	60.10	90.00	0.00	0.00	1	1.0324889	-4.400697	400.00	1	1.100	0.900
30	1	0.00	0.00	0.00	0.00	1	1.0567686	-18.616588	220.00	1	1.100	0.900
31	1	0.00	0.00	0.00	0.00	1	1.0331551	-5.456010	400.00	1	1.100	0.900
32	1	0.00	0.00	0.00	0.00	1	1.0486453	-17.569259	220.00	1	1.100	0.900
33	1	0.00	0.00	0.00	0.00	1	1.0768655	-5.978155	220.00	1	1.100	0.900
34	1	0.00	0.00	0.00	0.00	1	1.0715968	-11.888018	220.00	1	1.100	0.900
35	1	0.00	0.00	0.00	0.00	1	1.0909195	-15.145922	220.00	2	1.100	0.900
36	1	0.00	0.00	0.00	0.00	1	1.0815557	-15.550118	220.00	2	1.100	0.900
37	1	0.00	0.00	0.00	0.00	1	1.0898707	-14.569638	220.00	2	1.100	0.900
38	1	0.00	0.00	0.00	0.00	1	1.0898494	-14.572500	220.00	2	1.100	0.900
39	1	0.00	0.00	0.00	0.00	1	1.0855469	-16.204890	220.00	2	1.100	0.900
40	1	0.00	0.00	0.00	0.00	1	1.1029120	-13.811252	220.00	2	1.100	0.900
41	1	0.00	0.00	0.00	0.00	1	1.1028265	-13.814313	220.00	2	1.100	0.900
42	1	0.00	0.00	0.00	0.00	1	1.0215639	-13.876135	400.00	2	1.100	0.900
43	2	12.00	0.00	0.00	0.00	1	1.0909949	-13.754589	220.00	2	1.100	0.900
44	2	24.00	0.00	0.00	0.00	1	1.0909600	-13.738987	220.00	2	1.100	0.900
45	2	20.00	0.00	0.00	0.00	1	1.0325000	-13.607627	400.00	2	1.100	0.900
46	1	0.00	0.00	0.00	0.00	1	1.0324538	-13.609594	400.00	2	1.100	0.900
47	1	0.00	0.00	0.00	0.00	1	1.1016440	-14.248797	220.00	2	1.100	0.900
48	1	0.00	0.00	0.00	0.00	1	1.0261382	-17.596288	400.00	2	1.100	0.900
49	1	0.00	0.00	0.00	0.00	1	1.0261157	-17.601981	400.00	2	1.100	0.900
50	1	0.00	0.00	0.00	0.00	1	1.0280122	-14.109465	400.00	2	1.100	0.900
51	1	0.00	0.00	0.00	0.00	1	1.0861725	-15.320061	220.00	2	1.100	0.900
52	1	0.00	0.00	0.00	0.00	1	1.0861780	-15.316911	220.00	2	1.100	0.900
53	1	0.00	0.00	0.00	0.00	1	1.0349850	-14.375408	400.00	2	1.100	0.900
54	1	0.00	0.00	0.00	0.00	1	1.0350055	-14.375702	400.00	2	1.100	0.900
55	2	12.00	0.00	0.00	0.00	1	1.0917315	-13.677402	220.00	2	1.100	0.900
56	2	12.00	0.00	0.00	0.00	1	1.0917118	-13.677351	220.00	2	1.100	0.900
57	2	12.00	0.00	0.00	0.00	1	1.0370636	-14.001355	400.00	2	1.100	0.900
58	2	12.00	0.00	0.00	0.00	1	1.0370504	-14.006141	400.00	2	1.100	0.900
59	2	170.73	62.00	0.00	0.00	1	1.0844010	-14.798719	220.00	2	1.100	0.900
60	1	0.00	0.00	0.00	0.00	1	1.0844745	-14.794690	220.00	2	1.100	0.900
61	1	0.00	0.00	0.00	0.00	1	1.0977696	-14.381888	220.00	2	1.100	0.900
62	1	0.00	0.00	0.00	0.00	1	1.0902278	-14.564088	220.00	2	1.100	0.900
63	1	0.00	0.00	0.00	0.00	1	1.0902008	-14.565915	220.00	2	1.100	0.900
64	1	0.00	0.00	0.00	0.00	1	1.0367486	-15.240286	400.00	2	1.100	0.900
65	1	0.00	0.00	0.00	0.00	1	1.0367113	-15.251238	400.00	2	1.100	0.900
66	1	0.00	0.00	0.00	0.00	1	1.0888875	-15.334540	220.00	2	1.100	0.900
67	1	0.00	0.00	0.00	0.00	1	1.0898921	-15.177804	220.00	2	1.100	0.900
68	1	0.00	0.00	0.00	0.00	1	1.0862827	-14.635790	220.00	2	1.100	0.900
69	1	0.00	0.00	0.00	0.00	1	1.0846152	-9.408718	220.00	3	1.100	0.900
70	1	6.80	0.00	0.00	0.00	1	1.0951868	-14.823342	220.00	3	1.100	0.900
71	1	11.33	2.43	0.00	0.00	1	1.0950560	-14.831197	220.00	3	1.100	0.900
72	1	0.00	0.00	0.00	0.00	1	1.0875756	-13.585092	220.00	3	1.100	0.900
73	1	0.00	0.00	0.00	0.00	1	1.0876091	-13.569385	220.00	3	1.100	0.900
74	1	0.00	0.00	0.00	0.00	1	1.0878540	-10.943293	220.00	3	1.100	0.900
75	1	0.00	0.00	0.00	0.00	1	1.0878361	-10.948461	220.00	3	1.100	0.900
76	1	0.00	0.00	0.00	0.00	1	1.0857137	-18.030129	220.00	3	1.100	0.900
77	1	0.00	0.00	0.00	0.00	1	1.0856847	-18.042410	220.00	3	1.100	0.900
78	2	27.00	70.00	0.00	0.00	1	1.0909100	-12.507303	220.00	3	1.100	0.900
79	2	9.00	21.00	0.00	0.00	1	1.0903400	-13.073292	220.00	3	1.100	0.900
80	1	10.09	1.38	0.00	0.00	1	1.0817620	-12.842772	220.00	3	1.100	0.900
81	1	0.00	0.00	0.00	0.00	1	1.0817909	-12.846358	220.00	3	1.100	0.900
82	2	35.00	108.00	0.00	0.00	1	1.0311865	-6.635393	400.00	3	1.100	0.900
83	1	0.00	0.00	0.00	0.00	1	1.0884187	-10.552870	220.00	3	1.100	0.900
84	1	0.00	0.00	0.00	0.00	1	1.0885131	-11.628320	220.00	3	1.100	0.900
85	1	0.00	0.00	0.00	0.00	1	1.0885087	-11.638192	220.00	3	1.100	0.900
86	1	44.15	10.56	0.00	0.00	1	1.0850164	-9.488955	220.00	3	1.100	0.900
87	1	0.00	0.00	0.00	0.00	1	1.0850059	-9.494274	220.00	3	1.100	0.900
88	1	0.00	0.00	0.00	0.00	1	1.0850648	-11.606791	220.00	3	1.100	0.900
89	1	0.00	0.00	0.00	0.00	1	1.0850572	-11.613916	220.00	3	1.100	0.900
90	1	0.00	0.00	0.00	0.00	1	1.0871444	-9.037134	220.00	3	1.100	0.900
91	1	0.00	0.00	0.00	0.00	1	1.0871476	-9.032723	220.00	3	1.100	0.900
92	1	0.00	0.00	0.00	0.00	1	1.0352853	-6.763576	400.00	3	1.100	0.900
93	1	0.00	0.00	0.00	0.00	1	1.0352863	-6.763866	400.00	3	1.100	0.900
94	1	0.00	0.00	0.00	0.00	1	1.0894344	-10.945208	220.00	3	1.100	0.900
95	1	0.00	0.00	0.00	0.00	1	1.0894351	-10.945132	220.00	3	1.100	0.900
96	1	0.00	0.00	0.00	0.00	1	1.0867646	-10.691768	220.00	3	1.100	0.900
97	1	0.00	0.00	0.00	0.00	1	1.0867797	-10.691105	220.00	3	1.100	0.900
98	1	17.11	6.32	0.00	0.00	1	1.0878913	-12.768215	220.00	3	1.100	0.900
99	1	0.00	0.00	0.00	0.00	1	1.0878797	-12.764002	220.00	3	1.100	0.900
100	1	0.00	0.00	0.00	0.00	1	1.0952262	-14.805551	220.00	3	1.100	0.900
101	1	0.00	0.00	0.00	0.00	1	1.0952162	-14.807340	220.00	3	1.100	0.900
102	1	0.00	0.00	0.00	0.00	1	1.0852460	-17.240156	220.00	3	1.100	0.900
103	1	0.00	0.00	0.00	0.00	1	1.0852014	-17.227776	220.00	3	1.100	0.900
104	2	14.00	40.00	0.00	0.00	1	1.0909100	-10.967504	220.00	3	1.100	0.900
105	2	0.00	0.00	0.00	0.00	1	1.0908848	-10.980228	220.00	3	1.100	0.900
106	2	7.00	18.00	0.00	0.00	1	1.0909100	-10.829678	220.00	3	1.100	0.900
107	2	8.00	15.00	0.00	0.00	1	1.0909100	-10.832723	220.00	3	1.100	0.900
108	1	52.73	17.14	0.00	0.00	1	1.0864043	-12.266226	220.00	3	1.100	0.900
109	1	56.44	10.90	0.00	0.00	1	1.0864503	-12.279851	220.00	3	1.100	0.900
110	1	0.00	0.00	0.00	0.00	1	1.0883512	-13.962496	220.00	3	1.100	0.900
111	1	0.00	0.00	0.00	0.00	1	1.0770423	-11.873504	220.00	3	1.100	0.900
112	1	0.00	0.00	0.00	0.00	1	1.0770794	-11.878223	220.00	3	1.100	0.900
113	1	0.00	0.00	0.00	0.00	1	1.0834232	-13.103272	220.00	3	1.100	0.900
114	1	0.00	0.00	0.00	0.00	1	1.0834775	-13.098719	220.00	3	1.100	0.900
115	1	0.00	0.00	0.00	0.00	1	1.0281409	-9.387079	400.00	3	1.100	0.900
116	2	0.00	0.00	0.00	0.00	1	1.0904610	-12.861549	220.00	3	1.100	0.900
117	2	8.00	15.00	0.00	0.00	1	1.0904599	-12.852026	220.00	3	1.100	0.900
118	2	5.50	10.00	0.00	0.00	1	1.0941998	-13.553346	220.00	3	1.100	0.900
119	1	0.00	0.00	0.00	0.00	1	1.0941945	-13.558815	220.00	3	1.100	0.900
120	1	0.00	0.00	0.00	0.00	1	1.0386973	-13.959498	400.00	3	1.100	0.900
121	1	0.00	0.00	0.00	0.00	1	1.0387248	-13.952174	400.00	3	1.100	0.900
122	1	0.00	0.00	0.00	0.00	1	1.0319711	-9.554154	400.00	3	1.100	0.900
123	1	0.00	0.00	0.00	0.00	1	1.0320081	-9.552589	400.00	3	1.100	0.900
124	1	0.00	0.00	0.00	0.00	1	1.0885907	-13.993625	220.00	3	1.100	0.900
125	2	19.21	21.47	0.00	0.00	1	1.0909100	-9.907482	220.00	3	1.100	0.900
126	2	30.67	33.60	0.00	0.00	1	1.0908200	-9.915583	220.00	3	1.100	0.900
127	2	28.00	66.00	0.00	0.00	1	1.0286900	-8.281833	400.00	3	1.100	0.900
128	1	0.00	0.00	0.00	0.00	1	1.0286727	-8.291893	400.00	3	1.100	0.900
129	1	0.00	0.00	0.00	0.00	1	1.0847046	-9.599830	220.00	3	1.100	0.900
130	1	0.00	0.00	0.00	0.00	1	1.0847175	-9.598733	220.00	3	1.100	0.900
131	1	0.00	0.00	0.00	0.00	1	1.0861817	-9.414238	220.00	3	1.100	0.900
132	2	272.00	-62.00	0.00	0.00	1	1.0870664	-18.879840	220.00	3	1.100	0.900
133	2	266.50	-24.80	0.00	0.00	1	1.0849556	-18.864366	220.00	3	1.100	0.900
134	2	14.93	12.88	0.00	0.00	1	1.0880478	-13.818739	220.00	4	1.100	0.900
135	2	8.01	6.53	0.00	0.00	1	1.0879225	-13.827811	220.00	4	1.100	0.900
136	1	0.00	0.00	0.00	0.00	1	1.0797277	-16.784353	220.00	4	1.100	0.900
137	1	0.00	0.00	0.00	0.00	1	1.0841596	-16.300314	220.00	4	1.100	0.900
138	1	0.00	0.00	0.00	0.00	1	1.0407462	-13.831699	400.00	4	1.100	0.900
139	1	0.00	0.00	0.00	0.00	1	1.0407574	-13.827565	400.00	4	1.100	0.900
140	1	0.00	0.00	0.00	0.00	1	1.1023794	-23.253231	220.00	4	1.100	0.900
141	1	0.00	0.00	0.00	0.00	1	1.1011283	-25.851110	220.00	4	1.100	0.900
142	1	0.00	0.00	0.00	0.00	1	1.1011283	-25.851110	220.00	4	1.100	0.900
143	1	0.00	0.00	0.00	0.00	1	1.0959849	-24.333739	220.00	4	1.100	0.900
144	1	0.00	0.00	0.00	0.00	1	1.0874704	-15.430907	220.00	4	1.100	0.900
145	1	0.00	0.00	0.00	0.00	1	1.0874704	-15.430907	220.00	4	1.100	0.900
146	2	55.26	6.96	0.00	0.00	1	1.0901200	-17.412733	220.00	4	1.100	0.900
147	2	10.08	8.40	0.00	0.00	1	1.0901579	-17.422314	220.00	4	1.100	0.900
148	2	11.50	6.86	0.00	0.00	1	1.0988966	-24.954073	220.00	4	1.100	0.900
149	1	4.42	1.35	0.00	0.00	1	1.0988555	-24.968235	220.00	4	1.100	0.900
150	2	12.63	6.83	0.00	0.00	1	1.0324600	-26.621559	400.00	4	1.100	0.900
151	2	12.40	10.05	0.00	0.00	1	1.0324372	-26.627567	400.00	4	1.100	0.900
152	1	0.00	0.00	0.00	0.00	1	1.0893482	-23.300226	220.00	4	1.100	0.900
153	1	0.00	0.00	0.00	0.00	1	1.0868757	-22.345544	220.00	4	1.100	0.900
154	1	0.00	0.00	0.00	0.00	1	1.0869153	-22.339220	220.00	4	1.100	0.900
155	2	33.59	44.98	0.00	0.00	1	1.0909100	-14.600700	220.00	4	1.100	0.900
156	2	33.83	45.07	0.00	0.00	1	1.0909100	-14.674661	220.00	4	1.100	0.900
157	1	0.00	0.00	0.00	0.00	1	1.0909100	-14.600700	220.00	4	1.100	0.900
158	1	0.00	0.00	0.00	0.00	1	1.0339993	-13.607069	400.00	4	1.100	0.900
159	2	8.69	17.49	0.00	0.00	1	1.0339793	-13.604973	400.00	4	1.100	0.900
160	1	0.00	0.00	0.00	0.00	1	1.0999748	-25.902255	220.00	4	1.100	0.900
161	1	0.00	0.00	0.00	0.00	1	1.0999748	-25.902255	220.00	4	1.100	0.900
162	1	0.00	0.00	0.00	0.00	1	1.0423465	-12.971703	400.00	4	1.100	0.900
163	1	0.00	0.00	0.00	0.00	1	1.0406131	-12.029285	400.00	4	1.100	0.900
164	1	0.00	0.00	0.00	0.00	1	1.0406270	-12.035875	400.00	4	1.100	0.900
165	2	5.49	9.59	0.00	0.00	1	1.0908400	-17.668738	220.00	4	1.100	0.900
166	2	10.10	4.89	0.00	0.00	1	1.0908902	-17.686147	220.00	4	1.100	0.900
167	1	14.36	13.62	0.00	0.00	1	1.0908114	-17.670032	220.00	4	1.100	0.900
168	1	0.00	0.00	0.00	0.00	1	1.1104841	-28.866939	220.00	4	1.100	0.900
169	1	0.00	0.00	0.00	0.00	1	1.1040962	-25.946153	220.00	4	1.100	0.900
170	1	0.00	0.00	0.00	0.00	1	1.1097694	-24.260842	220.00	4	1.100	0.900
171	1	0.00	0.00	0.00	0.00	1	1.1096576	-24.259870	220.00	4	1.100	0.900
172	1	0.00	0.00	0.00	0.00	1	0.9669838	-25.379766	400.00	4	1.100	0.900
173	1	0.00	0.00	0.00	0.00	1	0.9669838	-25.379766	400.00	4	1.100	0.900
174	1	0.00	0.00	0.00	0.00	1	1.0708146	-21.586291	220.00	4	1.100	0.900
175	1	0.00	0.00	0.00	0.00	1	1.0708236	-21.584304	220.00	4	1.100	0.900
176	1	0.00	0.00	0.00	0.00	1	1.1080730	-24.495139	220.00	4	1.100	0.900
177	1	0.00	0.00	0.00	0.00	1	1.0837265	-16.213301	220.00	4	1.100	0.900
178	1	0.00	0.00	0.00	0.00	1	1.0837472	-16.208130	220.00	4	1.100	0.900
179	1	0.00	0.00	0.00	0.00	1	1.0854662	-15.155744	220.00	4	1.100	0.900
180	1	0.00	0.00	0.00	0.00	1	1.0854662	-15.155744	220.00	4	1.100	0.900
181	1	0.00	0.00	0.00	0.00	1	1.0695024	-22.404760	220.00	4	1.100	0.900
182	1	0.00	0.00	0.00	0.00	1	1.0542051	-25.406932	220.00	5	1.100	0.900
183	1	0.00	0.00	0.00	0.00	1	1.1205077	-32.492490	220.00	5	1.100	0.900
184	1	0.00	0.00	0.00	0.00	1	1.0393687	-32.119247	400.00	5	1.100	0.900
185	1	0.00	0.00	0.00	0.00	1	1.0393706	-32.112298	400.00	5	1.100	0.900
186	1	0.00	0.00	0.00	0.00	1	1.0274333	-34.405567	400.00	5	1.100	0.900
187	1	0.00	0.00	0.00	0.00	1	1.0274665	-34.413146	400.00	5	1.100	0.900
188	1	0.00	0.00	0.00	0.00	1	1.0822864	-32.645112	220.00	5	1.100	0.900
189	1	0.00	0.00	0.00	0.00	1	1.0823484	-32.648503	220.00	5	1.100	0.900
190	1	0.00	0.00	0.00	0.00	1	1.0547621	-27.562777	220.00	5	1.100	0.900
191	1	0.00	0.00	0.00	0.00	1	1.0548064	-27.560478	220.00	5	1.100	0.900
192	1	0.00	0.00	0.00	0.00	1	1.0033390	-27.070969	400.00	5	1.100	0.900
193	1	0.00	0.00	0.00	0.00	1	1.0608308	-25.002250	220.00	5	1.100	0.900
194	1	0.00	0.00	0.00	0.00	1	1.0608229	-24.999445	220.00	5	1.100	0.900
195	1	0.00	0.00	0.00	0.00	1	1.0245686	-33.559691	400.00	5	1.100	0.900
196	1	0.00	0.00	0.00	0.00	1	1.0245407	-33.557393	400.00	5	1.100	0.900
197	1	0.00	0.00	0.00	0.00	1	1.0637345	-27.447043	220.00	5	1.100	0.900
198	1	0.00	0.00	0.00	0.00	1	1.0636976	-27.440068	220.00	5	1.100	0.900
199	1	0.00	0.00	0.00	0.00	1	1.0396709	-33.648011	400.00	5	1.100	0.900
200	1	0.00	0.00	0.00	0.00	1	1.0396943	-33.635229	400.00	5	1.100	0.900
...
];

%% generator data 
mpc.gen = [
17	140.00	54.31	120.00	-10.00	1.0909	100.00	1	200.00	140.00	0.00	0.00	0.00	0.00	0.00	0.00	0	0	0	0	200.0000
18	140.00	32.54	120.00	-10.00	1.0909	100.00	1	200.00	140.00	0.00	0.00	0.00	0.00	0.00	0.00	0	0	0	0	200.0000
26	0.00	0.00	220.00	-10.00	1.0909	100.00	0	370.00	290.00	0.00	0.00	0.00	0.00	0.00	0.00	0	0	0	0	370.0000
26	360.00	135.91	220.00	-10.00	1.0909	100.00	1	360.00	290.00	0.00	0.00	0.00	0.00	0.00	0.00	0	0	0	0	360.0000
27	360.00	62.78	220.00	-10.00	1.0909	100.00	1	360.00	290.00	0.00	0.00	0.00	0.00	0.00	0.00	0	0	0	0	360.0000
27	370.00	62.78	220.00	-10.00	1.0909	100.00	1	370.00	290.00	0.00	0.00	0.00	0.00	0.00	0.00	0	0	0	0	370.0000
27	370.00	62.78	220.00	-10.00	1.0909	100.00	1	370.00	290.00	0.00	0.00	0.00	0.00	0.00	0.00	0	0	0	0	370.0000
28	0.00	0.00	220.00	-10.00	1.0325	100.00	0	370.00	290.00	0.00	0.00	0.00	0.00	0.00	0.00	0	0	0	0	370.0000
28	375.78	31.94	220.00	-10.00	1.0325	100.00	1	370.00	290.00	0.00	0.00	0.00	0.00	0.00	0.00	0	0	0	0	370.0000
28	375.78	31.94	220.00	-10.00	1.0325	100.00	1	370.00	290.00	0.00	0.00	0.00	0.00	0.00	0.00	0	0	0	0	370.0000
29	370.00	-10.00	220.00	-10.00	1.0325	100.00	1	370.00	290.00	0.00	0.00	0.00	0.00	0.00	0.00	0	0	0	0	370.0000
29	370.00	-10.00	220.00	-10.00	1.0325	100.00	1	370.00	290.00	0.00	0.00	0.00	0.00	0.00	0.00	0	0	0	0	370.0000
29	370.00	-10.00	220.00	-10.00	1.0325	100.00	1	370.00	290.00	0.00	0.00	0.00	0.00	0.00	0.00	0	0	0	0	370.0000
43	135.00	-20.00	120.00	-20.00	1.0909	100.00	1	215.00	135.00	0.00	0.00	0.00	0.00	0.00	0.00	0	0	0	0	215.0000
43	0.00	0.00	120.00	-20.00	1.0909	100.00	0	247.80	135.00	0.00	0.00	0.00	0.00	0.00	0.00	0	0	0	0	247.8000
43	0.00	0.00	120.00	-20.00	1.0909	100.00	0	247.80	135.00	0.00	0.00	0.00	0.00	0.00	0.00	0	0	0	0	247.8000
44	135.00	-17.58	120.00	-20.00	1.0910	100.00	1	225.00	135.00	0.00	0.00	0.00	0.00	0.00	0.00	0	0	0	0	225.0000
44	135.00	-17.58	120.00	-20.00	1.0910	100.00	1	225.00	135.00	0.00	0.00	0.00	0.00	0.00	0.00	0	0	0	0	225.0000
44	0.00	0.00	120.00	-20.00	1.0910	100.00	0	225.00	135.00	0.00	0.00	0.00	0.00	0.00	0.00	0	0	0	0	225.0000
45	0.00	0.00	350.00	-40.00	1.0325	100.00	0	500.00	350.00	0.00	0.00	0.00	0.00	0.00	0.00	0	0	0	0	500.0000
45	350.00	78.50	350.00	-40.00	1.0325	100.00	1	500.00	350.00	0.00	0.00	0.00	0.00	0.00	0.00	0	0	0	0	500.0000
55	130.00	-20.00	120.00	-20.00	1.0912	100.00	1	225.00	130.00	0.00	0.00	0.00	0.00	0.00	0.00	0	0	0	0	225.0000
56	130.00	-20.00	120.00	-20.00	1.0912	100.00	1	225.00	130.00	0.00	0.00	0.00	0.00	0.00	0.00	0	0	0	0	225.0000
56	0.00	0.00	120.00	-20.00	1.0912	100.00	0	225.00	130.00	0.00	0.00	0.00	0.00	0.00	0.00	0	0	0	0	225.0000
57	130.00	-20.00	120.00	-20.00	1.0334	100.00	1	225.00	130.00	0.00	0.00	0.00	0.00	0.00	0.00	0	0	0	0	225.0000
58	0.00	0.00	120.00	-20.00	1.0334	100.00	0	225.00	130.00	0.00	0.00	0.00	0.00	0.00	0.00	0	0	0	0	225.0000
58	130.00	-20.00	120.00	-20.00	1.0334	100.00	1	225.00	130.00	0.00	0.00	0.00	0.00	0.00	0.00	0	0	0	0	225.0000
58	0.00	0.00	120.00	-20.00	1.0334	100.00	0	225.00	130.00	0.00	0.00	0.00	0.00	0.00	0.00	0	0	0	0	225.0000
59	63.00	0.00	28.80	0.00	1.0841	100.00	1	63.00	63.00	0.00	0.00	0.00	0.00	0.00	0.00	0	0	0	0	63.0000
78	140.00	45.58	105.00	5.00	1.0909	100.00	1	225.00	140.00	0.00	0.00	0.00	0.00	0.00	0.00	0	0	0	0	225.0000
78	140.00	45.58	105.00	5.00	1.0909	100.00	1	225.00	140.00	0.00	0.00	0.00	0.00	0.00	0.00	0	0	0	0	225.0000
79	0.00	0.00	105.00	5.00	1.0903	100.00	0	220.00	140.00	0.00	0.00	0.00	0.00	0.00	0.00	0	0	0	0	220.0000
79	0.00	0.00	105.00	5.00	1.0903	100.00	0	225.00	140.00	0.00	0.00	0.00	0.00	0.00	0.00	0	0	0	0	225.0000
79	140.00	22.42	105.00	5.00	1.0903	100.00	1	225.00	140.00	0.00	0.00	0.00	0.00	0.00	0.00	0	0	0	0	225.0000
82	380.00	-37.00	192.00	-37.00	1.0299	100.00	1	380.00	220.00	0.00	0.00	0.00	0.00	0.00	0.00	0	0	0	0	380.0000
82	370.00	-27.70	174.00	-27.70	1.0299	100.00	1	370.00	220.00	0.00	0.00	0.00	0.00	0.00	0.00	0	0	0	0	370.0000
104	190.65	53.71	113.00	-48.00	1.0909	100.00	1	225.00	120.00	0.00	0.00	0.00	0.00	0.00	0.00	0	0	0	0	225.0000
105	0.00	0.00	113.00	-48.00	1.0909	100.00	0	225.00	134.00	0.00	0.00	0.00	0.00	0.00	0.00	0	0	0	0	225.0000
106	79.00	22.13	90.00	-5.00	1.0909	100.00	1	120.00	79.00	0.00	0.00	0.00	0.00	0.00	0.00	0	0	0	0	120.0000
107	79.00	75.22	90.00	-5.00	1.0909	100.00	1	120.00	79.00	0.00	0.00	0.00	0.00	0.00	0.00	0	0	0	0	120.0000
116	0.00	0.00	90.00	-20.00	1.0904	100.00	0	120.00	90.00	0.00	0.00	0.00	0.00	0.00	0.00	0	0	0	0	120.0000
117	70.00	16.70	90.00	-20.00	1.0905	100.00	1	120.00	70.00	0.00	0.00	0.00	0.00	0.00	0.00	0	0	0	0	120.0000
118	80.00	33.00	68.00	33.00	1.0890	100.00	1	110.00	80.00	0.00	0.00	0.00	0.00	0.00	0.00	0	0	0	0	110.0000
125	215.00	37.59	113.00	-11.00	1.0909	100.00	1	215.00	160.00	0.00	0.00	0.00	0.00	0.00	0.00	0	0	0	0	215.0000
126	225.00	56.10	84.00	-5.00	1.0908	100.00	1	225.00	140.00	0.00	0.00	0.00	0.00	0.00	0.00	0	0	0	0	225.0000
126	0.00	0.00	80.00	-5.00	1.0908	100.00	0	215.00	160.00	0.00	0.00	0.00	0.00	0.00	0.00	0	0	0	0	215.0000
127	225.00	15.58	79.00	-7.50	1.0287	100.00	1	225.00	140.00	0.00	0.00	0.00	0.00	0.00	0.00	0	0	0	0	225.0000
127	220.00	15.58	100.00	-10.00	1.0287	100.00	1	220.00	160.00	0.00	0.00	0.00	0.00	0.00	0.00	0	0	0	0	220.0000
132	0.00	0.00	0.00	0.00	1.0909	100.00	0	135.00	0.00	0.00	0.00	0.00	0.00	0.00	0.00	0	0	0	0	0.0000
132	0.00	0.00	0.00	0.00	1.0909	100.00	0	135.00	0.00	0.00	0.00	0.00	0.00	0.00	0.00	0	0	0	0	0.0000
133	0.00	0.00	0.00	0.00	1.0909	100.00	0	135.00	0.00	0.00	0.00	0.00	0.00	0.00	0.00	0	0	0	0	0.0000
133	0.00	0.00	0.00	0.00	1.0909	100.00	0	135.00	0.00	0.00	0.00	0.00	0.00	0.00	0.00	0	0	0	0	0.0000
134	0.00	0.00	90.00	0.00	1.0888	100.00	0	120.00	102.00	0.00	0.00	0.00	0.00	0.00	0.00	0	0	0	0	120.0000
134	120.00	90.00	90.00	0.00	1.0888	100.00	1	120.00	100.00	0.00	0.00	0.00	0.00	0.00	0.00	0	0	0	0	120.0000
135	0.00	0.00	90.00	0.00	1.0887	100.00	0	120.00	102.00	0.00	0.00	0.00	0.00	0.00	0.00	0	0	0	0	120.0000
146	50.00	2.66	12.00	0.00	1.0901	100.00	1	50.00	30.00	0.00	0.00	0.00	0.00	0.00	0.00	0	0	0	0	50.0000
146	34.27	2.66	12.00	0.00	1.0901	100.00	1	50.00	30.00	0.00	0.00	0.00	0.00	0.00	0.00	0	0	0	0	50.0000
147	0.00	0.00	90.00	0.00	1.0901	100.00	0	120.00	90.00	0.00	0.00	0.00	0.00	0.00	0.00	0	0	0	0	120.0000
148	90.00	0.00	120.00	0.00	1.0909	100.00	1	222.00	90.00	0.00	0.00	0.00	0.00	0.00	0.00	0	0	0	0	222.0000
148	0.00	0.00	120.00	0.00	1.0909	100.00	0	205.00	135.00	0.00	0.00	0.00	0.00	0.00	0.00	0	0	0	0	205.0000
148	0.00	0.00	120.00	0.00	1.0909	100.00	0	205.00	135.00	0.00	0.00	0.00	0.00	0.00	0.00	0	0	0	0	205.0000
148	90.00	0.00	120.00	0.00	1.0909	100.00	1	222.00	90.00	0.00	0.00	0.00	0.00	0.00	0.00	0	0	0	0	222.0000
150	90.00	5.89	120.00	0.00	1.0325	100.00	1	222.00	90.00	0.00	0.00	0.00	0.00	0.00	0.00	0	0	0	0	222.0000
151	90.00	5.89	120.00	0.00	1.0325	100.00	1	222.00	90.00	0.00	0.00	0.00	0.00	0.00	0.00	0	0	0	0	222.0000
151	0.00	0.00	120.00	0.00	1.0325	100.00	0	222.00	90.00	0.00	0.00	0.00	0.00	0.00	0.00	0	0	0	0	222.0000
155	94.00	23.79	120.00	0.00	1.0909	100.00	1	235.00	94.00	0.00	0.00	0.00	0.00	0.00	0.00	0	0	0	0	235.0000
155	94.00	23.79	120.00	0.00	1.0909	100.00	1	235.00	94.00	0.00	0.00	0.00	0.00	0.00	0.00	0	0	0	0	235.0000
155	0.00	0.00	120.00	0.00	1.0909	100.00	0	205.00	130.00	0.00	0.00	0.00	0.00	0.00	0.00	0	0	0	0	205.0000
155	104.00	23.79	120.00	0.00	1.0909	100.00	1	261.00	104.00	0.00	0.00	0.00	0.00	0.00	0.00	0	0	0	0	261.0000
156	0.00	0.00	120.00	0.00	1.0909	100.00	0	205.00	130.00	0.00	0.00	0.00	0.00	0.00	0.00	0	0	0	0	205.0000
156	130.00	20.68	120.00	0.00	1.0909	100.00	1	205.00	130.00	0.00	0.00	0.00	0.00	0.00	0.00	0	0	0	0	205.0000
156	120.00	20.68	120.00	0.00	1.0909	100.00	1	206.00	120.00	0.00	0.00	0.00	0.00	0.00	0.00	0	0	0	0	206.0000
156	120.00	20.68	120.00	0.00	1.0909	100.00	1	206.00	120.00	0.00	0.00	0.00	0.00	0.00	0.00	0	0	0	0	206.0000
159	120.00	0.00	120.00	0.00	1.0053	100.00	1	206.00	120.00	0.00	0.00	0.00	0.00	0.00	0.00	0	0	0	0	206.0000
165	200.00	49.75	120.00	0.00	1.0908	100.00	1	200.00	150.00	0.00	0.00	0.00	0.00	0.00	0.00	0	0	0	0	200.0000
165	0.00	0.00	120.00	0.00	1.0908	100.00	0	200.00	150.00	0.00	0.00	0.00	0.00	0.00	0.00	0	0	0	0	200.0000
165	0.00	0.00	120.00	0.00	1.0908	100.00	0	200.00	150.00	0.00	0.00	0.00	0.00	0.00	0.00	0	0	0	0	200.0000
166	200.00	120.00	120.00	0.00	1.0909	100.00	1	200.00	150.00	0.00	0.00	0.00	0.00	0.00	0.00	0	0	0	0	200.0000
205	0.00	11.45	80.00	-30.00	1.0325	100.00	1	0.00	0.00	0.00	0.00	0.00	0.00	0.00	0.00	0	0	0	0	0.0000
205	0.00	11.45	80.00	-30.00	1.0325	100.00	1	0.00	0.00	0.00	0.00	0.00	0.00	0.00	0.00	0	0	0	0	0.0000
205	0.00	11.45	80.00	-30.00	1.0325	100.00	1	0.00	0.00	0.00	0.00	0.00	0.00	0.00	0.00	0	0	0	0	0.0000
206	0.00	34.36	80.00	-30.00	1.0325	100.00	1	0.00	0.00	0.00	0.00	0.00	0.00	0.00	0.00	0	0	0	0	0.0000
215	37.08	0.00	20.00	0.00	1.0865	100.00	1	37.08	37.08	0.00	0.00	0.00	0.00	0.00	0.00	0	0	0	0	37.0790
215	33.71	0.00	20.00	0.00	1.0865	100.00	1	33.71	33.71	0.00	0.00	0.00	0.00	0.00	0.00	0	0	0	0	33.7080
215	33.71	0.00	20.00	0.00	1.0865	100.00	1	33.71	33.71	0.00	0.00	0.00	0.00	0.00	0.00	0	0	0	0	33.7080
215	15.51	0.00	20.00	0.00	1.0865	100.00	1	15.51	15.51	0.00	0.00	0.00	0.00	0.00	0.00	0	0	0	0	15.5060
219	1.70	0.00	6.00	0.00	1.0440	100.00	1	1.70	1.70	0.00	0.00	0.00	0.00	0.00	0.00	0	0	0	0	1.7000
221	0.50	0.00	1.00	0.00	1.0631	100.00	1	0.50	0.50	0.00	0.00	0.00	0.00	0.00	0.00	0	0	0	0	0.5000
222	0.50	0.00	0.20	0.00	1.0489	100.00	1	0.50	0.50	0.00	0.00	0.00	0.00	0.00	0.00	0	0	0	0	0.5000
223	0.00	1.00	1.00	0.00	1.0572	100.00	1	0.00	0.00	0.00	0.00	0.00	0.00	0.00	0.00	0	0	0	0	0.0000
229	5.50	1.50	1.50	0.00	1.0637	100.00	1	5.50	5.50	0.00	0.00	0.00	0.00	0.00	0.00	0	0	0	0	5.5000
230	5.50	3.02	7.00	0.00	1.0639	100.00	1	5.50	5.50	0.00	0.00	0.00	0.00	0.00	0.00	0	0	0	0	5.5000
239	3.00	0.00	8.00	0.00	1.0334	100.00	1	3.00	3.00	0.00	0.00	0.00	0.00	0.00	0.00	0	0	0	0	3.0000
246	370.00	3.86	220.00	-14.00	1.0350	100.00	1	370.00	290.00	0.00	0.00	0.00	0.00	0.00	0.00	0	0	0	0	370.0000
291	2.00	0.00	2.00	0.00	1.0644	100.00	1	2.00	2.00	0.00	0.00	0.00	0.00	0.00	0.00	0	0	0	0	2.0000
294	2.00	2.00	2.00	0.00	1.0528	100.00	1	2.00	2.00	0.00	0.00	0.00	0.00	0.00	0.00	0	0	0	0	2.0000
299	6.00	0.00	5.00	0.00	1.0836	100.00	1	6.00	6.00	0.00	0.00	0.00	0.00	0.00	0.00	0	0	0	0	6.0000
306	9.17	0.99	7.00	0.00	1.0533	100.00	1	9.17	9.17	0.00	0.00	0.00	0.00	0.00	0.00	0	0	0	0	9.1670
306	16.30	0.99	7.00	0.00	1.0533	100.00	1	16.30	16.30	0.00	0.00	0.00	0.00	0.00	0.00	0	0	0	0	16.2960
306	11.20	6.23	7.62	6.00	1.0533	100.00	1	11.20	11.20	0.00	0.00	0.00	0.00	0.00	0.00	0	0	0	0	11.2040
306	9.17	0.99	7.00	0.00	1.0533	100.00	1	9.17	9.17	0.00	0.00	0.00	0.00	0.00	0.00	0	0	0	0	9.1670
306	9.17	1.13	7.93	0.00	1.0533	100.00	1	9.17	9.17	0.00	0.00	0.00	0.00	0.00	0.00	0	0	0	0	9.1670
307	36.50	0.00	15.00	0.00	1.0585	100.00	1	36.50	36.50	0.00	0.00	0.00	0.00	0.00	0.00	0	0	0	0	36.5000
307	36.50	0.00	15.00	0.00	1.0585	100.00	1	36.50	36.50	0.00	0.00	0.00	0.00	0.00	0.00	0	0	0	0	36.5000
308	32.00	5.52	15.00	0.00	1.0670	100.00	1	32.00	32.00	0.00	0.00	0.00	0.00	0.00	0.00	0	0	0	0	32.0000
308	40.00	5.52	16.83	0.00	1.0670	100.00	1	40.00	40.00	0.00	0.00	0.00	0.00	0.00	0.00	0	0	0	0	40.0000
310	35.00	17.07	20.00	0.00	1.0730	100.00	1	35.00	35.00	0.00	0.00	0.00	0.00	0.00	0.00	0	0	0	0	35.0000
310	75.00	17.07	25.60	0.00	1.0730	100.00	1	75.00	75.00	0.00	0.00	0.00	0.00	0.00	0.00	0	0	0	0	75.0000
311	45.00	0.00	40.00	0.00	1.0627	100.00	1	45.00	45.00	0.00	0.00	0.00	0.00	0.00	0.00	0	0	0	0	45.0000
319	2.00	0.00	3.00	0.00	1.0700	100.00	1	2.00	2.00	0.00	0.00	0.00	0.00	0.00	0.00	0	0	0	0	2.0000
345	1.00	0.00	1.00	0.00	1.0480	100.00	1	1.00	1.00	0.00	0.00	0.00	0.00	0.00	0.00	0	0	0	0	1.0000
362	40.00	12.00	12.00	0.00	1.0889	100.00	1	40.00	40.00	0.00	0.00	0.00	0.00	0.00	0.00	0	0	0	0	40.0000
363	40.00	12.00	12.00	0.00	1.0604	100.00	1	40.00	40.00	0.00	0.00	0.00	0.00	0.00	0.00	0	0	0	0	40.0000
364	0.00	0.00	12.00	0.00	1.1049	100.00	0	0.00	0.00	0.00	0.00	0.00	0.00	0.00	0.00	0	0	0	0	0.0000
364	46.00	12.00	12.00	0.00	1.1049	100.00	1	46.00	46.00	0.00	0.00	0.00	0.00	0.00	0.00	0	0	0	0	46.0000
365	40.00	12.00	12.00	0.00	1.0698	100.00	1	40.00	40.00	0.00	0.00	0.00	0.00	0.00	0.00	0	0	0	0	40.0000
365	40.00	12.00	12.00	0.00	1.0698	100.00	1	40.00	40.00	0.00	0.00	0.00	0.00	0.00	0.00	0	0	0	0	40.0000
368	1.00	1.00	1.00	0.00	1.0711	100.00	1	1.00	1.00	0.00	0.00	0.00	0.00	0.00	0.00	0	0	0	0	1.0000
382	15.00	4.39	10.00	0.00	1.0818	100.00	1	55.00	15.00	0.00	0.00	0.00	0.00	0.00	0.00	0	0	0	0	55.0000
382	120.00	47.02	120.00	-10.00	1.0818	100.00	1	226.00	120.00	0.00	0.00	0.00	0.00	0.00	0.00	0	0	0	0	226.0000
382	0.08	-9.39	-9.39	-9.39	1.0818	100.00	1	0.08	0.08	0.00	0.00	0.00	0.00	0.00	0.00	0	0	0	0	0.0800
383	15.00	10.00	10.00	0.00	1.1005	100.00	1	55.00	15.00	0.00	0.00	0.00	0.00	0.00	0.00	0	0	0	0	55.0000
383	6.01	10.54	10.54	10.54	1.1005	100.00	1	6.01	6.01	0.00	0.00	0.00	0.00	0.00	0.00	0	0	0	0	6.0100
386	2.50	0.00	2.00	0.00	1.0581	100.00	1	2.50	2.50	0.00	0.00	0.00	0.00	0.00	0.00	0	0	0	0	2.5000
395	1.00	1.00	1.00	0.00	1.0656	100.00	1	1.00	1.00	0.00	0.00	0.00	0.00	0.00	0.00	0	0	0	0	1.0000
421	4.00	0.00	4.00	0.00	1.0486	100.00	1	4.00	4.00	0.00	0.00	0.00	0.00	0.00	0.00	0	0	0	0	4.0000
426	3.00	3.00	3.00	0.00	1.0743	100.00	1	3.00	3.00	0.00	0.00	0.00	0.00	0.00	0.00	0	0	0	0	3.0000
431	5.00	8.00	8.00	0.00	1.0894	100.00	1	5.00	5.00	0.00	0.00	0.00	0.00	0.00	0.00	0	0	0	0	5.0000
440	2.00	2.00	2.00	0.00	1.0288	100.00	1	2.00	2.00	0.00	0.00	0.00	0.00	0.00	0.00	0	0	0	0	2.0000
447	3.50	0.00	20.00	0.00	1.0498	100.00	1	3.50	3.50	0.00	0.00	0.00	0.00	0.00	0.00	0	0	0	0	3.5000
447	3.50	0.00	20.00	0.00	1.0498	100.00	1	3.50	3.50	0.00	0.00	0.00	0.00	0.00	0.00	0	0	0	0	3.5000
449	10.00	0.00	3.00	0.00	1.0550	100.00	1	10.00	10.00	0.00	0.00	0.00	0.00	0.00	0.00	0	0	0	0	10.0000
463	0.00	0.00	2.00	0.00	1.0465	100.00	1	0.00	0.00	0.00	0.00	0.00	0.00	0.00	0.00	0	0	0	0	0.0000
482	1.40	0.70	0.70	0.00	1.0266	100.00	1	1.40	1.40	0.00	0.00	0.00	0.00	0.00	0.00	0	0	0	0	1.4000
490	3.00	0.00	3.00	0.00	1.0553	100.00	1	3.00	3.00	0.00	0.00	0.00	0.00	0.00	0.00	0	0	0	0	3.0000
522	0.00	0.00	1.00	0.00	1.0693	100.00	1	0.00	0.00	0.00	0.00	0.00	0.00	0.00	0.00	0	0	0	0	0.0000
533	0.50	1.00	1.00	0.00	1.0720	100.00	1	0.50	0.50	0.00	0.00	0.00	0.00	0.00	0.00	0	0	0	0	0.5000
534	35.89	3.35	14.00	0.00	1.0643	100.00	1	35.89	35.89	0.00	0.00	0.00	0.00	0.00	0.00	0	0	0	0	35.8900
534	22.09	3.35	14.00	0.00	1.0643	100.00	1	22.09	22.09	0.00	0.00	0.00	0.00	0.00	0.00	0	0	0	0	22.0860
534	22.09	3.35	14.00	0.00	1.0643	100.00	1	22.09	22.09	0.00	0.00	0.00	0.00	0.00	0.00	0	0	0	0	22.0860
534	72.47	3.35	14.00	0.00	1.0643	100.00	1	72.47	72.47	0.00	0.00	0.00	0.00	0.00	0.00	0	0	0	0	72.4690
534	72.47	3.35	14.00	0.00	1.0643	100.00	1	72.47	72.47	0.00	0.00	0.00	0.00	0.00	0.00	0	0	0	0	72.4690
535	24.57	0.00	17.50	0.00	1.0578	100.00	1	24.57	24.57	0.00	0.00	0.00	0.00	0.00	0.00	0	0	0	0	24.5730
535	23.80	0.00	17.50	0.00	1.0578	100.00	1	23.80	23.80	0.00	0.00	0.00	0.00	0.00	0.00	0	0	0	0	23.8050
535	95.99	0.00	17.50	0.00	1.0578	100.00	1	95.99	95.99	0.00	0.00	0.00	0.00	0.00	0.00	0	0	0	0	95.9900
535	80.63	0.00	17.50	0.00	1.0578	100.00	1	80.63	80.63	0.00	0.00	0.00	0.00	0.00	0.00	0	0	0	0	80.6310
549	1.00	0.00	0.70	0.00	1.0394	100.00	1	1.00	1.00	0.00	0.00	0.00	0.00	0.00	0.00	0	0	0	0	1.0000
557	25.72	0.00	5.05	0.00	1.0404	100.00	1	25.72	25.72	0.00	0.00	0.00	0.00	0.00	0.00	0	0	0	0	25.7240
557	21.18	0.00	5.05	0.00	1.0404	100.00	1	21.18	21.18	0.00	0.00	0.00	0.00	0.00	0.00	0	0	0	0	21.1840
557	19.67	0.00	5.00	0.00	1.0404	100.00	1	19.67	19.67	0.00	0.00	0.00	0.00	0.00	0.00	0	0	0	0	19.6710
557	22.70	0.00	5.05	0.00	1.0404	100.00	1	22.70	22.70	0.00	0.00	0.00	0.00	0.00	0.00	0	0	0	0	22.6970
557	25.72	0.00	5.05	0.00	1.0404	100.00	1	25.72	25.72	0.00	0.00	0.00	0.00	0.00	0.00	0	0	0	0	25.7240
558	31.03	0.00	5.06	0.00	1.0368	100.00	1	31.03	31.03	0.00	0.00	0.00	0.00	0.00	0.00	0	0	0	0	31.0320
558	31.03	0.00	5.06	0.00	1.0368	100.00	1	31.03	31.03	0.00	0.00	0.00	0.00	0.00	0.00	0	0	0	0	31.0320
558	22.82	0.00	5.00	0.00	1.0368	100.00	1	22.82	22.82	0.00	0.00	0.00	0.00	0.00	0.00	0	0	0	0	22.8170
558	30.12	0.00	5.06	0.00	1.0368	100.00	1	30.12	30.12	0.00	0.00	0.00	0.00	0.00	0.00	0	0	0	0	30.1190
569	4.00	0.00	4.00	0.00	1.0631	100.00	1	4.00	4.00	0.00	0.00	0.00	0.00	0.00	0.00	0	0	0	0	4.0000
581	3.00	0.22	3.00	0.00	1.0494	100.00	1	3.00	3.00	0.00	0.00	0.00	0.00	0.00	0.00	0	0	0	0	3.0000
594	2.07	0.00	1.08	0.00	1.0649	100.00	1	2.07	2.07	0.00	0.00	0.00	0.00	0.00	0.00	0	0	0	0	2.0700
601	4.05	0.00	1.80	0.00	1.0619	100.00	1	4.05	4.05	0.00	0.00	0.00	0.00	0.00	0.00	0	0	0	0	4.0500
622	110.00	-0.00	30.00	-0.00	1.0778	100.00	1	110.00	110.00	0.00	0.00	0.00	0.00	0.00	0.00	0	0	0	0	110.0000
622	0.00	0.00	30.00	0.00	1.0778	100.00	0	0.00	0.00	0.00	0.00	0.00	0.00	0.00	0.00	0	0	0	0	0.0000
626	2.25	0.00	0.90	0.00	1.0729	100.00	1	2.25	2.25	0.00	0.00	0.00	0.00	0.00	0.00	0	0	0	0	2.2500
630	4.50	0.00	2.52	0.00	1.0695	100.00	1	4.50	4.50	0.00	0.00	0.00	0.00	0.00	0.00	0	0	0	0	4.5000
631	5.40	0.00	2.52	0.00	1.0694	100.00	1	5.40	5.40	0.00	0.00	0.00	0.00	0.00	0.00	0	0	0	0	5.4000
655	0.81	0.00	0.36	0.00	1.0317	100.00	1	0.81	0.81	0.00	0.00	0.00	0.00	0.00	0.00	0	0	0	0	0.8100
660	135.00	25.38	120.00	-20.00	1.0821	100.00	1	225.00	135.00	0.00	0.00	0.00	0.00	0.00	0.00	0	0	0	0	225.0000
661	135.00	9.62	120.00	-20.00	1.0818	100.00	1	225.00	135.00	0.00	0.00	0.00	0.00	0.00	0.00	0	0	0	0	225.0000
667	1.89	0.72	0.72	0.00	1.0373	100.00	1	1.89	1.89	0.00	0.00	0.00	0.00	0.00	0.00	0	0	0	0	1.8900
671	7.65	0.00	2.70	0.00	1.0681	100.00	1	7.65	7.65	0.00	0.00	0.00	0.00	0.00	0.00	0	0	0	0	7.6500
673	2.70	0.67	0.90	0.00	1.0649	100.00	1	2.70	2.70	0.00	0.00	0.00	0.00	0.00	0.00	0	0	0	0	2.7000
681	190.00	0.00	30.00	0.00	1.0802	100.00	1	190.00	190.00	0.00	0.00	0.00	0.00	0.00	0.00	0	0	0	0	190.0000
681	25.00	0.00	30.00	0.00	1.0802	100.00	1	25.00	25.00	0.00	0.00	0.00	0.00	0.00	0.00	0	0	0	0	24.9980
687	9.00	0.00	4.50	0.00	1.0751	100.00	1	9.00	9.00	0.00	0.00	0.00	0.00	0.00	0.00	0	0	0	0	9.0000
699	5.40	0.00	2.70	0.00	1.0746	100.00	1	5.40	5.40	0.00	0.00	0.00	0.00	0.00	0.00	0	0	0	0	5.4000
702	0.90	0.00	0.90	0.00	1.0721	100.00	1	0.90	0.90	0.00	0.00	0.00	0.00	0.00	0.00	0	0	0	0	0.9000
712	9.00	0.00	2.00	0.00	1.0710	100.00	1	9.00	9.00	0.00	0.00	0.00	0.00	0.00	0.00	0	0	0	0	9.0000
718	1.44	0.00	0.36	0.00	1.0311	100.00	1	1.44	1.44	0.00	0.00	0.00	0.00	0.00	0.00	0	0	0	0	1.4400
722	2.25	0.00	0.90	0.00	1.0607	100.00	1	2.25	2.25	0.00	0.00	0.00	0.00	0.00	0.00	0	0	0	0	2.2500
731	1.35	0.00	0.45	0.00	1.0620	100.00	1	1.35	1.35	0.00	0.00	0.00	0.00	0.00	0.00	0	0	0	0	1.3500
736	130.00	-2.90	120.00	-20.00	1.0818	100.00	1	225.00	130.00	0.00	0.00	0.00	0.00	0.00	0.00	0	0	0	0	225.0000
740	1.80	0.00	0.00	0.00	1.0660	100.00	1	1.80	1.80	0.00	0.00	0.00	0.00	0.00	0.00	0	0	0	0	1.8000
747	4.68	2.70	2.70	0.00	1.0485	100.00	1	4.68	4.68	0.00	0.00	0.00	0.00	0.00	0.00	0	0	0	0	4.6800
759	90.00	8.14	30.00	0.00	1.0699	100.00	1	90.00	90.00	0.00	0.00	0.00	0.00	0.00	0.00	0	0	0	0	90.0000
760	0.00	0.00	0.00	0.00	1.0682	100.00	0	0.00	0.00	0.00	0.00	0.00	0.00	0.00	0.00	0	0	0	0	0.0000
778	9.00	0.00	30.00	0.00	1.0592	100.00	1	9.00	9.00	0.00	0.00	0.00	0.00	0.00	0.00	0	0	0	0	9.0000
780	1.26	0.00	0.63	0.00	1.0778	100.00	1	1.26	1.26	0.00	0.00	0.00	0.00	0.00	0.00	0	0	0	0	1.2600
783	6.00	0.00	3.00	0.00	1.0734	100.00	1	6.00	6.00	0.00	0.00	0.00	0.00	0.00	0.00	0	0	0	0	6.0000
788	2.00	1.00	1.00	0.00	1.0476	100.00	1	2.00	2.00	0.00	0.00	0.00	0.00	0.00	0.00	0	0	0	0	2.0000
792	0.00	0.00	23.00	0.00	1.0537	100.00	0	68.00	0.00	0.00	0.00	0.00	0.00	0.00	0.00	0	0	0	0	0.0000
792	0.00	0.00	23.00	0.00	1.0537	100.00	0	68.00	0.00	0.00	0.00	0.00	0.00	0.00	0.00	0	0	0	0	0.0000
792	0.00	0.00	11.00	0.00	1.0537	100.00	0	31.00	0.00	0.00	0.00	0.00	0.00	0.00	0.00	0	0	0	0	0.0000
792	0.00	0.00	10.00	0.00	1.0537	100.00	0	31.00	0.00	0.00	0.00	0.00	0.00	0.00	0.00	0	0	0	0	0.0000
803	0.00	8.82	10.00	0.00	1.0819	100.00	1	55.00	0.00	0.00	0.00	0.00	0.00	0.00	0.00	0	0	0	0	55.0000
804	0.00	10.00	10.00	0.00	1.0728	100.00	1	120.00	0.00	0.00	0.00	0.00	0.00	0.00	0.00	0	0	0	0	120.0000
809	0.00	0.00	0.00	0.00	1.0700	100.00	0	0.00	0.00	0.00	0.00	0.00	0.00	0.00	0.00	0	0	0	0	0.0000
815	2.70	0.00	1.62	0.00	1.0716	100.00	1	2.70	2.70	0.00	0.00	0.00	0.00	0.00	0.00	0	0	0	0	2.7000
834	0.90	0.00	0.00	0.00	1.0524	100.00	1	0.90	0.90	0.00	0.00	0.00	0.00	0.00	0.00	0	0	0	0	0.9000
840	25.00	4.68	5.59	0.00	1.0593	100.00	1	25.00	25.00	0.00	0.00	0.00	0.00	0.00	0.00	0	0	0	0	25.0000
840	25.00	4.68	5.59	0.00	1.0593	100.00	1	25.00	25.00	0.00	0.00	0.00	0.00	0.00	0.00	0	0	0	0	25.0000
...
];

%% generator cost data
mpc.gencost = [
2	0	0	4	0.0000	0.000	112.780	0.00
2	0	0	4	0.0000	0.000	112.780	0.00
2	0	0	4	0.0000	0.000	76.100	0.00
2	0	0	4	0.0000	0.000	76.100	0.00
2	0	0	4	0.0000	0.000	76.100	0.00
2	0	0	4	0.0000	0.000	76.100	0.00
2	0	0	4	0.0000	0.000	76.100	0.00
2	0	0	4	0.0000	0.000	76.100	0.00
2	0	0	4	0.0000	0.000	76.100	0.00
2	0	0	4	0.0000	0.000	76.100	0.00
2	0	0	4	0.0000	0.000	76.100	0.00
2	0	0	4	0.0000	0.000	76.100	0.00
2	0	0	4	0.0000	0.000	76.100	0.00
2	0	0	4	0.0000	0.000	102.050	0.00
2	0	0	4	0.0000	0.000	102.050	0.00
2	0	0	4	0.0000	0.000	102.050	0.00
2	0	0	4	0.0000	0.000	102.050	0.00
2	0	0	4	0.0000	0.000	102.050	0.00
2	0	0	4	0.0000	0.000	102.050	0.00
2	0	0	4	0.0000	0.000	102.050	0.00
2	0	0	4	0.0000	0.000	102.050	0.00
2	0	0	4	0.0000	0.000	105.350	0.00
2	0	0	4	0.0000	0.000	105.350	0.00
2	0	0	4	0.0000	0.000	105.350	0.00
2	0	0	4	0.0000	0.000	105.350	0.00
2	0	0	4	0.0000	0.000	105.350	0.00
2	0	0	4	0.0000	0.000	105.350	0.00
2	0	0	4	0.0000	0.000	105.350	0.00
2	0	0	4	0.0000	0.000	0.000	0.00
2	0	0	4	0.0000	0.000	95.310	0.00
2	0	0	4	0.0000	0.000	95.310	0.00
2	0	0	4	0.0000	0.000	95.310	0.00
2	0	0	4	0.0000	0.000	95.310	0.00
2	0	0	4	0.0000	0.000	95.310	0.00
2	0	0	4	0.0000	0.000	90.030	0.00
2	0	0	4	0.0000	0.000	90.030	0.00
2	0	0	4	0.0000	0.000	92.780	0.00
2	0	0	4	0.0000	0.000	92.780	0.00
2	0	0	4	0.0000	0.000	94.090	0.00
2	0	0	4	0.0000	0.000	94.090	0.00
2	0	0	4	0.0000	0.000	97.120	0.00
2	0	0	4	0.0000	0.000	97.120	0.00
2	0	0	4	0.0000	0.000	99.520	0.00
2	0	0	4	0.0000	0.000	91.160	0.00
2	0	0	4	0.0000	0.000	91.160	0.00
2	0	0	4	0.0000	0.000	91.160	0.00
2	0	0	4	0.0000	0.000	91.160	0.00
2	0	0	4	0.0000	0.000	91.160	0.00
2	0	0	4	0.0000	0.000	0.010	0.00
2	0	0	4	0.0000	0.000	0.010	0.00
2	0	0	4	0.0000	0.000	0.010	0.00
2	0	0	4	0.0000	0.000	0.010	0.00
2	0	0	4	0.0000	0.000	92.430	0.00
2	0	0	4	0.0000	0.000	92.430	0.00
2	0	0	4	0.0000	0.000	92.430	0.00
2	0	0	4	0.0000	0.000	96.420	0.00
2	0	0	4	0.0000	0.000	96.420	0.00
2	0	0	4	0.0000	0.000	96.420	0.00
2	0	0	4	0.0000	0.000	116.010	0.00
2	0	0	4	0.0000	0.000	116.010	0.00
2	0	0	4	0.0000	0.000	116.010	0.00
2	0	0	4	0.0000	0.000	116.010	0.00
2	0	0	4	0.0000	0.000	116.010	0.00
2	0	0	4	0.0000	0.000	116.010	0.00
2	0	0	4	0.0000	0.000	116.010	0.00
2	0	0	4	0.0000	0.000	98.840	0.00
2	0	0	4	0.0000	0.000	98.840	0.00
2	0	0	4	0.0000	0.000	98.840	0.00
2	0	0	4	0.0000	0.000	98.840	0.00
2	0	0	4	0.0000	0.000	98.840	0.00
2	0	0	4	0.0000	0.000	98.840	0.00
2	0	0	4	0.0000	0.000	98.840	0.00
2	0	0	4	0.0000	0.000	98.840	0.00
2	0	0	4	0.0000	0.000	98.840	0.00
2	0	0	4	0.0000	0.000	89.220	0.00
2	0	0	4	0.0000	0.000	89.220	0.00
2	0	0	4	0.0000	0.000	89.220	0.00
2	0	0	4	0.0000	0.000	89.220	0.00
2	0	0	4	0.0000	0.000	0.010	0.00
2	0	0	4	0.0000	0.000	0.010	0.00
2	0	0	4	0.0000	0.000	0.010	0.00
2	0	0	4	0.0000	0.000	0.010	0.00
2	0	0	4	0.0000	0.000	0.000	0.00
2	0	0	4	0.0000	0.000	0.000	0.00
2	0	0	4	0.0000	0.000	0.000	0.00
2	0	0	4	0.0000	0.000	0.000	0.00
2	0	0	4	0.0000	0.000	0.000	0.00
2	0	0	4	0.0000	0.000	0.000	0.00
2	0	0	4	0.0000	0.000	0.000	0.00
2	0	0	4	0.0000	0.000	0.000	0.00
2	0	0	4	0.0000	0.000	0.000	0.00
2	0	0	4	0.0000	0.000	0.000	0.00
2	0	0	4	0.0000	0.000	0.000	0.00
2	0	0	4	0.0000	0.000	76.100	0.00
2	0	0	4	0.0000	0.000	0.000	0.00
2	0	0	4	0.0000	0.000	0.000	0.00
2	0	0	4	0.0000	0.000	0.000	0.00
2	0	0	4	0.0000	0.000	0.000	0.00
2	0	0	4	0.0000	0.000	0.000	0.00
2	0	0	4	0.0000	0.000	0.000	0.00
2	0	0	4	0.0000	0.000	0.000	0.00
2	0	0	4	0.0000	0.000	0.000	0.00
2	0	0	4	0.0000	0.000	0.000	0.00
2	0	0	4	0.0000	0.000	0.000	0.00
2	0	0	4	0.0000	0.000	0.000	0.00
2	0	0	4	0.0000	0.000	0.000	0.00
2	0	0	4	0.0000	0.000	0.000	0.00
2	0	0	4	0.0000	0.000	0.000	0.00
2	0	0	4	0.0000	0.000	0.000	0.00
2	0	0	4	0.0000	0.000	0.000	0.00
2	0	0	4	0.0000	0.000	0.000	0.00
2	0	0	4	0.0000	0.000	0.000	0.00
2	0	0	4	0.0000	0.000	0.000	0.00
2	0	0	4	0.0000	0.000	0.000	0.00
2	0	0	4	0.0000	0.000	0.000	0.00
2	0	0	4	0.0000	0.000	0.000	0.00
2	0	0	4	0.0000	0.000	0.000	0.00
2	0	0	4	0.0000	0.000	0.000	0.00
2	0	0	4	0.0000	0.000	112.780	0.00
2	0	0	4	0.0000	0.000	112.780	0.00
2	0	0	4	0.0000	0.000	0.000	0.00
2	0	0	4	0.0000	0.000	112.780	0.00
2	0	0	4	0.0000	0.000	0.000	0.00
2	0	0	4	0.0000	0.000	0.000	0.00
2	0	0	4	0.0000	0.000	0.000	0.00
2	0	0	4	0.0000	0.000	0.000	0.00
2	0	0	4	0.0000	0.000	0.000	0.00
2	0	0	4	0.0000	0.000	0.000	0.00
2	0	0	4	0.0000	0.000	0.000	0.00
2	0	0	4	0.0000	0.000	0.000	0.00
2	0	0	4	0.0000	0.000	0.000	0.00
2	0	0	4	0.0000	0.000	0.000	0.00
2	0	0	4	0.0000	0.000	0.000	0.00
2	0	0	4	0.0000	0.000	0.000	0.00
2	0	0	4	0.0000	0.000	0.000	0.00
2	0	0	4	0.0000	0.000	0.000	0.00
2	0	0	4	0.0000	0.000	0.000	0.00
2	0	0	4	0.0000	0.000	0.000	0.00
2	0	0	4	0.0000	0.000	0.000	0.00
2	0	0	4	0.0000	0.000	0.000	0.00
2	0	0	4	0.0000	0.000	0.000	0.00
2	0	0	4	0.0000	0.000	0.000	0.00
2	0	0	4	0.0000	0.000	0.000	0.00
2	0	0	4	0.0000	0.000	0.000	0.00
2	0	0	4	0.0000	0.000	0.000	0.00
2	0	0	4	0.0000	0.000	0.000	0.00
2	0	0	4	0.0000	0.000	0.000	0.00
2	0	0	4	0.0000	0.000	0.000	0.00
2	0	0	4	0.0000	0.000	0.000	0.00
2	0	0	4	0.0000	0.000	0.000	0.00
2	0	0	4	0.0000	0.000	0.000	0.00
2	0	0	4	0.0000	0.000	0.000	0.00
2	0	0	4	0.0000	0.000	0.000	0.00
2	0	0	4	0.0000	0.000	0.000	0.00
2	0	0	4	0.0000	0.000	0.000	0.00
2	0	0	4	0.0000	0.000	0.000	0.00
2	0	0	4	0.0000	0.000	0.000	0.00
2	0	0	4	0.0000	0.000	0.000	0.00
2	0	0	4	0.0000	0.000	0.000	0.00
2	0	0	4	0.0000	0.000	0.000	0.00
2	0	0	4	0.0000	0.000	0.000	0.00
2	0	0	4	0.0000	0.000	0.000	0.00
2	0	0	4	0.0000	0.000	0.000	0.00
2	0	0	4	0.0000	0.000	0.000	0.00
2	0	0	4	0.0000	0.000	0.000	0.00
2	0	0	4	0.0000	0.000	0.000	0.00
2	0	0	4	0.0000	0.000	102.050	0.00
2	0	0	4	0.0000	0.000	102.050	0.00
2	0	0	4	0.0000	0.000	0.000	0.00
2	0	0	4	0.0000	0.000	0.000	0.00
2	0	0	4	0.0000	0.000	0.000	0.00
2	0	0	4	0.0000	0.000	0.000	0.00
2	0	0	4	0.0000	0.000	0.000	0.00
2	0	0	4	0.0000	0.000	0.000	0.00
2	0	0	4	0.0000	0.000	0.000	0.00
2	0	0	4	0.0000	0.000	0.000	0.00
2	0	0	4	0.0000	0.000	0.000	0.00
2	0	0	4	0.0000	0.000	0.000	0.00
2	0	0	4	0.0000	0.000	0.000	0.00
2	0	0	4	0.0000	0.000	0.000	0.00
2	0	0	4	0.0000	0.000	105.350	0.00
2	0	0	4	0.0000	0.000	0.000	0.00
2	0	0	4	0.0000	0.000	0.000	0.00
2	0	0	4	0.0000	0.000	0.000	0.00
2	0	0	4	0.0000	0.000	0.000	0.00
2	0	0	4	0.0000	0.000	0.000	0.00
2	0	0	4	0.0000	0.000	0.000	0.00
2	0	0	4	0.0000	0.000	0.000	0.00
2	0	0	4	0.0000	0.000	0.000	0.00
2	0	0	4	0.0000	0.000	0.010	0.00
2	0	0	4	0.0000	0.000	0.010	0.00
2	0	0	4	0.0000	0.000	0.010	0.00
2	0	0	4	0.0000	0.000	0.010	0.00
2	0	0	4	0.0000	0.000	111.630	0.00
2	0	0	4	0.0000	0.000	111.630	0.00
2	0	0	4	0.0000	0.000	0.000	0.00
2	0	0	4	0.0000	0.000	0.000	0.00
2	0	0	4	0.0000	0.000	0.000	0.00
2	0	0	4	0.0000	0.000	0.000	0.00
2	0	0	4	0.0000	0.000	0.000	0.00
...
];

%% branch data
mpc.branch = [
26	1	0.001550	0.011690	0.01820	747.00	747.00	747.00	0.00000	0.000	1	0.00	0.00	45.18	87.61	-45.05	-88.79
390	1	0.001570	0.066120	0.00000	160.00	160.00	160.00	1.03360	0.000	1	0.00	0.00	-44.92	-83.18	45.05	88.79
27	2	0.001550	0.011690	0.01820	747.00	747.00	747.00	0.00000	0.000	1	0.00	0.00	48.70	68.14	-48.61	-69.58
391	2	0.001570	0.066120	0.00000	160.00	160.00	160.00	1.00590	0.000	1	0.00	0.00	-48.51	-65.52	48.61	69.58
17	3	0.010680	0.078950	0.12260	274.00	274.00	274.00	0.00000	0.000	1	0.00	0.00	107.66	19.84	-106.55	-25.89
248	3	0.001651	0.067360	0.00000	160.00	160.00	160.00	1.02600	0.000	1	0.00	0.00	-77.40	-6.46	77.48	10.10
249	3	0.001651	0.067360	0.00000	160.00	160.00	160.00	1.03690	0.000	1	0.00	0.00	-29.05	-15.14	29.07	15.79
5	4	0.000021	0.000207	0.00000	876.00	876.00	876.00	0.00000	0.000	1	0.00	0.00	-62.48	12.88	62.48	-12.87
10	4	0.016740	0.097110	0.14423	461.00	461.00	461.00	0.00000	0.000	1	0.00	0.00	-167.81	12.11	172.14	-3.22
19	4	0.002930	0.015990	0.02478	362.00	362.00	362.00	0.00000	0.000	1	0.00	0.00	103.78	3.29	-103.50	-4.64
33	4	0.004419	0.032229	0.04985	392.00	392.00	392.00	0.00000	0.000	1	0.00	0.00	183.24	-2.95	-181.96	6.53
275	4	0.001651	0.069010	0.00000	160.00	160.00	160.00	1.00980	0.000	1	0.00	0.00	-50.80	-12.53	50.84	14.20
26	5	0.009773	0.050516	0.08896	377.00	377.00	377.00	0.00000	0.000	1	0.00	0.00	135.88	15.65	-134.32	-18.02
34	5	0.007831	0.043000	0.04962	335.00	335.00	335.00	0.00000	0.000	1	0.00	0.00	-132.72	26.93	133.98	-25.70
276	5	0.001651	0.069010	0.00000	160.00	160.00	160.00	1.01920	0.000	1	0.00	0.00	-62.75	-27.89	62.82	30.84
7	6	0.000021	0.000207	0.00000	876.00	876.00	876.00	0.00000	0.000	1	0.00	0.00	34.41	35.93	-34.41	-35.93
11	6	0.005250	0.039880	0.06195	373.00	373.00	373.00	0.00000	0.000	1	0.00	0.00	-1.40	-21.48	1.42	14.72
339	6	0.001651	0.068599	0.00000	160.00	160.00	160.00	1.02540	0.000	1	0.00	0.00	-32.97	-20.27	32.99	21.21
7	8	0.000640	0.030500	0.00000	400.00	400.00	400.00	1.04350	-0.600	1	-360.00	360.00	-98.55	-12.87	98.62	15.80
17	7	0.014591	0.112190	0.16553	427.00	427.00	427.00	0.00000	0.000	1	0.00	0.00	-30.78	26.98	31.06	-43.92
339	7	0.001651	0.068599	0.00000	160.00	160.00	160.00	1.02510	0.000	1	0.00	0.00	-33.06	-19.92	33.08	20.86
9	8	0.000006	0.000063	0.00000	1593.00	1593.00	1593.00	0.00000	0.000	1	0.00	0.00	-71.61	63.53	71.61	-63.53
8	14	0.001120	0.013290	0.34125	1358.00	1358.00	1358.00	0.00000	0.000	1	0.00	0.00	-235.72	74.48	236.41	-101.37
8	15	0.002990	0.036750	0.91840	1358.00	1358.00	1358.00	0.00000	0.000	1	0.00	0.00	65.49	-78.63	-65.34	-15.69
25	9	0.002980	0.034170	0.93504	831.00	831.00	831.00	0.00000	0.000	1	0.00	0.00	-153.39	-54.06	154.08	-34.32
45	9	0.001500	0.015060	0.40320	1386.00	1386.00	1386.00	0.00000	0.000	1	0.00	0.00	199.90	56.42	-199.25	-92.33
340	9	0.001500	0.061880	0.00000	250.00	250.00	250.00	1.08240	0.000	1	0.00	0.00	-116.53	-52.61	116.79	63.12
11	10	0.000021	0.000207	0.00000	876.00	876.00	876.00	0.00000	0.000	1	0.00	0.00	-132.21	-22.53	132.21	22.56
21	10	0.012110	0.087419	0.14017	373.00	373.00	373.00	0.00000	0.000	1	0.00	0.00	-35.38	20.49	35.60	-34.67
12	11	0.000021	0.000207	0.00000	876.00	876.00	876.00	0.00000	0.000	1	0.00	0.00	71.54	12.68	-71.54	-12.67
30	11	0.005700	0.040700	0.06021	373.00	373.00	373.00	0.00000	0.000	1	0.00	0.00	-53.26	20.32	53.43	-25.76
32	11	0.000930	0.006510	0.01113	373.00	373.00	373.00	0.00000	0.000	1	0.00	0.00	-45.52	-27.93	45.54	26.87
351	11	0.001651	0.067750	0.00000	160.00	160.00	160.00	1.02900	0.000	1	0.00	0.00	-61.25	-26.47	61.32	29.30
352	11	0.001651	0.067750	0.00000	160.00	160.00	160.00	1.02370	0.000	1	0.00	0.00	-44.81	-24.61	44.85	26.27
23	12	0.002050	0.013260	0.02243	415.00	415.00	415.00	0.00000	0.000	1	0.00	0.00	11.07	1.84	-11.07	-4.31
43	12	0.012690	0.074979	0.13020	377.00	377.00	377.00	0.00000	0.000	1	0.00	0.00	105.19	36.08	-103.80	-42.84
353	12	0.001651	0.067750	0.00000	160.00	160.00	160.00	1.03050	0.000	1	0.00	0.00	-43.29	-32.59	43.33	34.47
14	13	0.000006	0.000063	0.00000	1593.00	1593.00	1593.00	0.00000	0.000	1	0.00	0.00	171.90	144.83	-171.90	-144.80
359	13	0.000870	0.052440	-0.02144	330.00	330.00	330.00	1.10400	0.000	1	0.00	0.00	-171.57	-71.90	171.90	93.84
14	29	0.003360	0.039770	1.02163	1316.00	1316.00	1316.00	0.00000	0.000	1	0.00	0.00	-408.31	-43.46	413.81	2.00
16	15	0.000006	0.000063	0.00000	1593.00	1593.00	1593.00	0.00000	0.000	1	0.00	0.00	0.00	0.00	0.00	0.00
366	15	0.000870	0.052440	-0.02144	330.00	330.00	330.00	1.08630	0.000	1	0.00	0.00	-65.30	-11.02	65.34	15.69
18	17	0.000021	0.000207	0.00000	876.00	876.00	876.00	0.00000	0.000	1	0.00	0.00	-12.84	17.07	12.84	-17.07
383	17	0.001240	0.068391	0.00000	160.00	160.00	160.00	0.99920	0.000	1	0.00	0.00	-47.96	7.79	47.98	-6.45
198	18	0.014091	0.104130	0.15972	373.00	373.00	373.00	0.00000	0.000	1	0.00	0.00	-154.77	-5.01	157.75	8.53
382	18	0.001240	0.068391	0.00000	160.00	160.00	160.00	0.97300	0.000	1	0.00	0.00	14.63	33.82	-14.61	-33.06
20	19	0.000021	0.000207	0.00000	876.00	876.00	876.00	0.00000	0.000	1	0.00	0.00	37.66	-5.71	-37.65	5.71
26	19	0.005700	0.039521	0.07553	480.00	480.00	480.00	0.00000	0.000	1	0.00	0.00	130.65	25.50	-129.79	-28.39
388	19	0.001651	0.069010	0.00000	160.00	160.00	160.00	1.01300	0.000	1	0.00	0.00	-63.61	-16.74	63.67	19.39
27	20	0.005700	0.039521	0.07553	480.00	480.00	480.00	0.00000	0.000	1	0.00	0.00	307.83	13.03	-303.28	9.69
134	20	0.010680	0.061961	0.09496	415.00	415.00	415.00	0.00000	0.000	1	0.00	0.00	-177.19	58.68	180.40	-51.18
389	20	0.001651	0.069010	0.00000	160.00	160.00	160.00	1.02310	0.000	1	0.00	0.00	-85.09	-41.52	85.22	47.20
22	21	0.000021	0.000207	0.00000	876.00	876.00	876.00	0.00000	0.000	1	0.00	0.00	0.00	0.00	0.00	0.00
165	21	0.014651	0.105891	0.17085	373.00	373.00	373.00	0.00000	0.000	1	0.00	0.00	31.29	7.74	-31.13	-26.53
395	21	0.001550	0.066120	0.00000	160.00	160.00	160.00	0.99550	0.000	1	0.00	0.00	-46.64	-3.67	46.67	4.94
396	21	0.001570	0.066120	0.00000	160.00	160.00	160.00	0.99610	0.000	1	0.00	0.00	-19.84	-0.87	19.85	1.10
43	23	0.013450	0.081141	0.14113	339.00	339.00	339.00	0.00000	0.000	1	0.00	0.00	95.27	31.84	-94.06	-40.75
401	23	0.001651	0.069010	0.00000	160.00	160.00	160.00	1.03070	0.000	1	0.00	0.00	-48.29	-22.33	48.34	24.15
402	23	0.001651	0.069010	0.00000	160.00	160.00	160.00	1.01540	0.000	1	0.00	0.00	-34.64	-13.86	34.66	14.75
24	33	0.000002	0.000021	0.00000	392.00	392.00	392.00	0.00000	0.000	1	0.00	0.00	-90.44	-12.73	90.44	12.73
403	24	0.001570	0.067979	0.00000	160.00	160.00	160.00	0.99900	0.000	1	0.00	0.00	-76.08	-1.67	76.15	5.08
404	24	0.001651	0.069010	0.00000	160.00	160.00	160.00	0.96300	0.000	1	0.00	0.00	-14.28	-7.49	14.28	7.65
28	25	0.003580	0.042620	1.09440	1386.00	1386.00	1386.00	0.00000	0.000	1	0.00	0.00	585.28	14.91	-573.60	9.96
25	192	0.002070	0.024740	0.66400	831.00	831.00	831.00	0.00000	0.000	1	0.00	0.00	641.90	-7.52	-633.53	40.16
410	25	0.001500	0.061880	0.00000	250.00	250.00	250.00	1.06080	0.000	1	0.00	0.00	-84.98	3.84	85.09	0.55
26	28	0.000360	0.025190	0.00000	500.00	500.00	500.00	1.06270	0.000	1	0.00	0.00	-91.56	-21.97	91.59	24.09
26	90	0.009091	0.062401	0.11142	457.00	457.00	457.00	0.00000	0.000	1	0.00	0.00	111.28	-12.94	-110.34	6.24
27	29	0.000360	0.025190	0.00000	500.00	500.00	500.00	1.06230	0.000	1	0.00	0.00	162.76	-21.82	-162.66	28.26
27	33	0.003841	0.028531	0.04588	392.00	392.00	392.00	0.00000	0.000	1	0.00	0.00	276.16	22.83	-273.68	-9.78
27	91	0.008680	0.064050	0.09699	457.00	457.00	457.00	0.00000	0.000	1	0.00	0.00	219.55	-15.89	-216.03	30.38
29	28	0.000006	0.000063	0.00000	1593.00	1593.00	1593.00	0.00000	0.000	1	0.00	0.00	270.57	-43.97	-270.56	44.02
92	28	0.002190	0.023690	0.59584	1316.00	1316.00	1316.00	0.00000	0.000	1	0.00	0.00	-182.26	0.90	182.96	-57.01
28	123	0.002310	0.027690	0.70144	1386.00	1386.00	1386.00	0.00000	0.000	1	0.00	0.00	343.98	-48.76	-341.41	4.79
246	28	0.000790	0.036780	0.00000	426.00	426.00	426.00	1.00000	0.000	1	0.00	0.00	226.84	11.07	-226.46	6.64
31	29	0.000630	0.007490	0.39226	1358.00	1358.00	1358.00	0.00000	0.000	1	0.00	0.00	-259.49	12.50	259.89	-49.54
29	93	0.001370	0.016250	0.41184	1386.00	1386.00	1386.00	0.00000	0.000	1	0.00	0.00	268.30	-56.75	-267.36	23.89
146	30	0.016961	0.123659	0.19699	373.00	373.00	373.00	0.00000	0.000	1	0.00	0.00	23.20	14.72	-23.02	-36.14
462	30	0.001651	0.068180	0.00000	160.00	160.00	160.00	1.00950	0.000	1	0.00	0.00	-76.19	-12.12	76.28	15.82
82	31	0.003310	0.034250	0.85888	1150.00	1150.00	1150.00	0.00000	0.000	1	0.00	0.00	-63.94	-44.75	64.06	-45.43
486	31	0.001370	0.061190	-0.01504	250.00	250.00	250.00	1.07350	0.000	1	0.00	0.00	-96.79	-7.43	96.91	14.64
487	31	0.001370	0.061190	-0.01504	250.00	250.00	250.00	1.07360	0.000	1	0.00	0.00	-98.39	-10.85	98.52	18.30
543	32	0.001651	0.071070	0.00000	160.00	160.00	160.00	1.02760	0.000	1	0.00	0.00	-45.48	-26.09	45.52	27.93
135	34	0.005120	0.026180	0.02962	335.00	335.00	335.00	0.00000	0.000	1	0.00	0.00	-131.92	94.44	133.07	-92.00
570	34	0.001651	0.069010	0.00000	160.00	160.00	160.00	1.01200	0.000	1	0.00	0.00	0.22	-31.46	-0.21	32.08
571	34	0.001651	0.069010	0.00000	160.00	160.00	160.00	1.01280	0.000	1	0.00	0.00	0.17	-32.34	-0.15	32.99
51	35	0.011630	0.070310	0.10580	377.00	377.00	377.00	0.00000	0.000	1	0.00	0.00	-6.17	-12.55	6.17	0.06
60	35	0.008370	0.048680	0.07348	419.00	419.00	419.00	0.00000	0.000	1	0.00	0.00	12.08	-20.71	-12.05	12.19
67	35	0.011219	0.065581	0.09835	274.00	274.00	274.00	0.00000	0.000	1	0.00	0.00	-1.26	-7.33	1.26	-4.36
584	35	0.001401	0.066800	0.00000	160.00	160.00	160.00	1.04170	0.000	0	0.00	0.00	0.00	0.00	0.00	0.00
584	35	0.001401	0.066800	0.00000	160.00	160.00	160.00	0.99880	0.000	1	0.00	0.00	-4.61	7.93	4.61	-7.89
38	36	0.007690	0.057271	0.08789	373.00	373.00	373.00	0.00000	0.000	1	0.00	0.00	36.62	5.95	-36.52	-15.60
589	36	0.001510	0.067151	0.00000	160.00	160.00	160.00	0.98780	0.000	1	0.00	0.00	-36.50	-14.69	36.52	15.60
38	37	0.000021	0.000207	0.00000	876.00	876.00	876.00	0.00000	0.000	1	0.00	0.00	-29.49	-8.20	29.49	8.20
37	56	0.003740	0.027831	0.04269	274.00	274.00	274.00	0.00000	0.000	1	0.00	0.00	-66.28	-0.32	66.42	-3.73
67	37	0.004521	0.033680	0.05169	392.00	392.00	392.00	0.00000	0.000	1	0.00	0.00	-36.74	2.13	36.79	-7.88
55	38	0.005560	0.041450	0.06360	427.00	427.00	427.00	0.00000	0.000	1	0.00	0.00	44.75	-4.49	-44.66	-2.39
609	38	0.001570	0.078081	0.00000	160.00	160.00	160.00	0.99060	0.000	1	0.00	0.00	-37.51	-3.70	37.53	4.64
52	39	0.006979	0.051961	0.07967	373.00	373.00	373.00	0.00000	0.000	1	0.00	0.00	34.75	-7.78	-34.68	-1.08
613	39	0.001490	0.066159	0.00000	160.00	160.00	160.00	0.99690	0.000	1	0.00	0.00	-34.67	-0.41	34.68	1.08
41	40	0.000021	0.000207	0.00000	876.00	876.00	876.00	0.00000	0.000	1	0.00	0.00	-35.65	-41.94	35.65	41.95
40	42	0.000340	0.020970	0.00000	500.00	500.00	500.00	1.10110	0.000	1	0.00	0.00	3.98	-95.20	-3.95	97.10
47	40	0.002401	0.014940	0.02252	377.00	377.00	377.00	0.00000	0.000	1	0.00	0.00	-61.97	-0.52	62.05	-1.74
62	40	0.012130	0.062151	0.09371	347.00	347.00	347.00	0.00000	0.000	1	0.00	0.00	-28.64	-22.06	28.75	11.37
40	91	0.011159	0.072310	0.10367	362.00	362.00	362.00	0.00000	0.000	1	0.00	0.00	-130.43	43.63	132.22	-44.47
61	41	0.002479	0.017979	0.02759	373.00	373.00	373.00	0.00000	0.000	1	0.00	0.00	-69.59	-22.61	69.70	20.06
41	109	0.014880	0.081610	0.11480	347.00	347.00	347.00	0.00000	0.000	1	0.00	0.00	-34.05	21.88	34.30	-34.30
42	58	0.002259	0.026439	0.70784	1358.00	1358.00	1358.00	0.00000	0.000	1	0.00	0.00	3.95	-97.10	-3.87	23.02
44	43	0.000021	0.000207	0.00000	876.00	876.00	876.00	0.00000	0.000	1	0.00	0.00	153.13	-33.91	-153.13	33.96
43	46	0.000340	0.020970	0.00000	500.00	500.00	500.00	1.07330	0.000	1	0.00	0.00	-13.92	-77.16	13.94	78.41
59	43	0.005450	0.040211	0.06699	446.00	446.00	446.00	0.00000	0.000	1	0.00	0.00	-54.95	-13.78	55.09	6.93
62	43	0.005740	0.042831	0.06573	446.00	446.00	446.00	0.00000	0.000	1	0.00	0.00	-38.76	-0.39	38.84	-6.88
661	43	0.001570	0.067750	0.00000	160.00	160.00	160.00	0.96690	0.000	1	0.00	0.00	4.37	45.91	-4.34	-44.76
60	44	0.005450	0.040211	0.06699	446.00	446.00	446.00	0.00000	0.000	1	0.00	0.00	-55.49	-13.41	55.64	6.57
63	44	0.007070	0.045409	0.06931	347.00	347.00	347.00	0.00000	0.000	1	0.00	0.00	-37.14	0.11	37.23	-7.82
46	45	0.000006	0.000063	0.00000	1593.00	1593.00	1593.00	0.00000	0.000	1	0.00	0.00	-64.70	-69.52	64.70	69.53
53	45	0.001760	0.021440	0.57344	1358.00	1358.00	1358.00	0.00000	0.000	1	0.00	0.00	-65.33	-12.91	65.40	-47.45
50	46	0.001670	0.018900	0.54176	1358.00	1358.00	1358.00	0.00000	0.000	1	0.00	0.00	-50.71	-48.09	50.76	-8.88
663	47	0.001630	0.069461	0.00000	160.00	160.00	160.00	0.96590	0.000	1	0.00	0.00	-61.92	1.68	61.97	0.52
49	48	0.000006	0.000063	0.00000	1593.00	1593.00	1593.00	0.00000	0.000	1	0.00	0.00	-168.02	-20.75	168.02	20.77
48	65	0.001130	0.014060	0.37488	831.00	831.00	831.00	0.00000	0.000	1	0.00	0.00	-313.26	-65.39	314.33	38.89
2738	48	0.001880	0.022870	0.64320	831.00	831.00	831.00	0.00000	0.000	1	0.00	0.00	-144.75	-105.14	145.24	44.62
665	49	0.001350	0.060520	0.00000	250.00	250.00	250.00	0.98810	0.000	1	0.00	0.00	-23.23	24.43	23.24	-23.80
2738	49	0.001880	0.022870	0.64320	831.00	831.00	831.00	0.00000	0.000	1	0.00	0.00	-144.30	-105.10	144.78	44.55
692	50	0.001350	0.060520	0.00000	250.00	250.00	250.00	1.09750	0.000	1	0.00	0.00	-50.65	-45.29	50.71	48.09
693	50	0.001530	0.061560	0.00000	250.00	250.00	250.00	1.07680	0.000	0	0.00	0.00	0.00	0.00	0.00	0.00
52	51	0.000021	0.000207	0.00000	876.00	876.00	876.00	0.00000	0.000	1	0.00	0.00	31.30	-0.27	-31.30	0.28
711	51	0.001570	0.066159	0.00000	160.00	160.00	160.00	1.00850	0.000	1	0.00	0.00	-37.45	-11.40	37.47	12.27
68	52	0.003159	0.020760	0.03146	415.00	415.00	415.00	0.00000	0.000	1	0.00	0.00	66.18	-10.98	-66.06	8.05
54	53	0.000006	0.000063	0.00000	1593.00	1593.00	1593.00	0.00000	0.000	1	0.00	0.00	-5.46	34.16	5.46	-34.16
730	53	0.001390	0.059840	0.00000	250.00	250.00	250.00	1.07980	0.000	1	0.00	0.00	-59.79	-43.83	59.87	47.07
58	54	0.001090	0.012770	0.34176	1358.00	1358.00	1358.00	0.00000	0.000	1	0.00	0.00	55.24	-6.31	-55.21	-29.99
727	54	0.001400	0.062350	0.00000	250.00	250.00	250.00	1.04590	0.000	1	0.00	0.00	-60.62	6.32	60.67	-4.17
56	55	0.000021	0.000207	0.00000	876.00	876.00	876.00	0.00000	0.000	1	0.00	0.00	-0.54	-10.38	0.54	10.38
55	57	0.000810	0.030000	0.00000	400.00	400.00	400.00	1.05470	0.000	1	0.00	0.00	20.04	-7.22	-20.03	7.35
100	55	0.003719	0.043800	0.10096	457.00	457.00	457.00	0.00000	0.000	1	0.00	0.00	-52.58	7.68	52.67	-18.67
61	56	0.008820	0.065641	0.10066	274.00	274.00	274.00	0.00000	0.000	1	0.00	0.00	-20.70	6.98	20.74	-18.72
737	56	0.001450	0.068391	0.00000	160.00	160.00	160.00	0.99850	0.000	1	0.00	0.00	-31.37	-12.17	31.38	12.83
58	57	0.000006	0.000063	0.00000	1593.00	1593.00	1593.00	0.00000	0.000	1	0.00	0.00	-143.36	-8.05	143.36	8.06
121	57	0.001690	0.019940	0.50624	831.00	831.00	831.00	0.00000	0.000	1	0.00	0.00	5.33	-19.11	-5.33	-35.41
64	58	0.000940	0.010970	0.29376	1552.00	1552.00	1552.00	0.00000	0.000	1	0.00	0.00	-209.60	1.59	209.99	-28.66
60	59	0.000021	0.000207	0.00000	876.00	876.00	876.00	0.00000	0.000	1	0.00	0.00	43.41	34.12	-43.41	-34.11
63	59	0.010479	0.060969	0.09205	316.00	316.00	316.00	0.00000	0.000	1	0.00	0.00	9.39	3.30	-9.37	-14.10
754	61	0.001570	0.067750	0.00000	160.00	160.00	160.00	0.97610	0.000	1	0.00	0.00	-45.22	-5.34	45.25	6.51
755	61	0.001651	0.067750	0.00000	160.00	160.00	160.00	0.97760	0.000	1	0.00	0.00	-45.01	-7.93	45.04	9.12
63	62	0.000021	0.000207	0.00000	876.00	876.00	876.00	0.00000	0.000	1	0.00	0.00	-19.55	-12.24	19.55	12.24
765	62	0.001630	0.067831	0.00000	160.00	160.00	160.00	0.99210	0.000	1	0.00	0.00	-47.81	-8.84	47.85	10.21
764	63	0.001430	0.068310	0.00000	160.00	160.00	160.00	0.99130	0.000	1	0.00	0.00	-47.28	-7.49	47.31	8.82
65	64	0.000006	0.000063	0.00000	1593.00	1593.00	1593.00	0.00000	0.000	1	0.00	0.00	-328.98	-29.91	328.98	29.97
120	64	0.001500	0.017880	0.45120	831.00	831.00	831.00	0.00000	0.000	1	0.00	0.00	134.75	-22.82	-134.50	-22.76
774	64	0.001390	0.060800	0.00000	250.00	250.00	250.00	1.02030	0.000	1	0.00	0.00	-15.11	8.98	15.12	-8.80
122	65	0.004690	0.055440	1.40480	831.00	831.00	831.00	0.00000	0.000	0	0.00	0.00	0.00	0.00	0.00	0.00
775	65	0.001400	0.062350	0.00000	250.00	250.00	250.00	1.02010	0.000	1	0.00	0.00	-14.64	9.15	14.64	-8.98
67	66	0.001510	0.008781	0.01316	377.00	377.00	377.00	0.00000	0.000	1	0.00	0.00	38.00	5.20	-37.98	-6.66
803	66	0.001630	0.067539	0.00000	160.00	160.00	160.00	0.99770	0.000	1	0.00	0.00	-37.96	-5.81	37.98	6.66
828	68	0.001610	0.067620	0.00000	160.00	160.00	160.00	0.99840	0.000	1	0.00	0.00	-56.89	4.23	56.93	-2.37
2736	68	0.014341	0.083531	0.12603	415.00	415.00	415.00	0.00000	0.000	1	0.00	0.00	125.00	-17.25	-123.11	13.35
91	69	0.002066	0.012789	0.02055	316.00	316.00	316.00	0.00000	0.000	1	0.00	0.00	62.39	10.43	-62.32	-12.42
850	69	0.002070	0.067771	-0.00300	160.00	160.00	160.00	1.00300	0.000	1	0.00	0.00	-62.24	-9.75	62.32	12.42
101	70	0.000785	0.004876	0.00724	316.00	316.00	316.00	0.00000	0.000	1	0.00	0.00	6.80	-0.87	-6.80	0.00
100	71	0.000785	0.004876	0.00726	316.00	316.00	316.00	0.00000	0.000	1	0.00	0.00	11.33	1.56	-11.33	-2.43
73	72	0.000021	0.000207	0.00000	876.00	876.00	876.00	0.00000	0.000	1	0.00	0.00	156.82	1.69	-156.81	-1.64
103	72	0.011219	0.070744	0.11570	290.00	290.00	290.00	0.00000	0.000	1	0.00	0.00	-103.44	9.32	104.48	-16.39
880	72	0.001651	0.067979	-0.00319	160.00	160.00	160.00	0.99510	0.000	1	0.00	0.00	-52.29	-15.91	52.33	18.04
78	73	0.002128	0.014029	0.02260	335.00	335.00	335.00	0.00000	0.000	1	0.00	0.00	157.26	1.92	-156.82	-1.69
75	74	0.000021	0.000207	0.00000	876.00	876.00	876.00	0.00000	0.000	1	0.00	0.00	-51.98	-4.15	51.98	4.15
126	74	0.005930	0.040930	0.07215	446.00	446.00	446.00	0.00000	0.000	1	0.00	0.00	52.12	-3.47	-51.98	-4.15
75	106	0.010930	0.059194	0.08439	290.00	290.00	290.00	0.00000	0.000	1	0.00	0.00	-5.03	-9.71	5.03	-0.28
897	75	0.001450	0.069211	-0.00532	160.00	160.00	160.00	0.99030	0.000	1	0.00	0.00	-56.97	-11.23	57.01	13.86
77	76	0.000021	0.000207	0.00000	876.00	876.00	876.00	0.00000	0.000	1	0.00	0.00	-122.33	-2.80	122.34	2.83
79	76	0.005186	0.038388	0.05875	492.00	492.00	492.00	0.00000	0.000	1	0.00	0.00	264.95	-14.61	-261.88	30.37
132	76	0.000847	0.006240	0.00954	457.00	457.00	457.00	0.00000	0.000	1	0.00	0.00	-272.00	62.00	272.56	-59.01
2734	76	0.012190	0.070659	0.11742	412.00	412.00	412.00	0.00000	0.000	1	0.00	0.00	134.95	-28.38	-133.01	25.82
102	77	0.001591	0.011116	0.01913	492.00	492.00	492.00	0.00000	0.000	1	0.00	0.00	144.97	-25.12	-144.68	24.90
133	77	0.000847	0.006260	0.00948	457.00	457.00	457.00	0.00000	0.000	1	0.00	0.00	-266.50	24.80	267.02	-22.11
79	78	0.000021	0.000207	0.00000	876.00	876.00	876.00	0.00000	0.000	0	0.00	0.00	0.00	0.00	0.00	0.00
89	78	0.004463	0.030413	0.04867	290.00	290.00	290.00	0.00000	0.000	1	0.00	0.00	56.47	-31.56	-56.32	26.84
114	78	0.004628	0.027748	0.04611	362.00	362.00	362.00	0.00000	0.000	1	0.00	0.00	-47.45	-23.59	47.56	18.77
117	78	0.001839	0.012603	0.02239	373.00	373.00	373.00	0.00000	0.000	1	0.00	0.00	-56.14	3.14	56.19	-5.46
119	78	0.008161	0.042417	0.06120	385.00	385.00	385.00	0.00000	0.000	1	0.00	0.00	-48.14	14.55	48.32	-20.91
79	85	0.004318	0.029752	0.05264	373.00	373.00	373.00	0.00000	0.000	1	0.00	0.00	-96.71	18.87	97.07	-22.66
98	79	0.003409	0.024421	0.03997	290.00	290.00	290.00	0.00000	0.000	1	0.00	0.00	23.88	-16.54	-23.86	11.96
...